case18.py
# -*- coding: utf-8 -*-
"""
Created on Wed Oct 18 11:02:21 2023

@author: ULRICH_LUMENDO
"""
from numpy import array
def case():
    ppc = {"version": '2'}
    ppc["baseMVA"] = 10
    ppc["bus"] = array([
        [1, 1, 0, 0, 0, 0, 1, 1, 0, 12.5, 1, 1.1, 0.9],
        [2, 1, 0.2, 0.12, 0, 1.05, 1, 1, 0, 12.5, 1, 1.1, 0.9],
        [3, 1, 0.4, 0.25, 0, 0.6, 1, 1, 0, 12.5, 1, 1.1, 0.9],
        [4, 1, 1.5, 0.93, 0, 0.6, 1, 1, 0, 12.5, 1, 1.1, 0.9],
        [5, 1, 3, 2.26, 0, 1.8, 1, 1, 0, 12.5, 1, 1.1, 0.9],
        [6, 1, 0.8, 0.5, 0, 0, 1, 1, 0, 12.5, 1, 1.1, 0.9],
        [7, 1, 0.2, 0.12, 0, 0.6, 1, 1, 0, 12.5, 1, 1.1, 0.9],
        [8, 1, 1, 0.62, 0, 0, 1, 1, 0, 12.5, 1, 1.1, 0.9],
        [9, 1, 0.5, 0.31, 0, 0, 1, 1, 0, 12.5, 1, 1.1, 0.9],
        [10, 1, 1, 0.62, 0, 0.6, 1, 1, 0, 12.5, 1, 1.1, 0.9],
        [11, 1, 0.3, 0.19, 0, 1.2, 1, 1, 0, 12.5, 1, 1.1, 0.9],
        [12, 1, 0.2, 0.12, 0, 0, 1, 1, 0, 12.5, 1, 1.1, 0.9],
        [13, 1, 0.8, 0.5, 0, 0, 1, 1, 0, 12.5, 1, 1.1, 0.9],
        [14, 1, 0.5, 0.31, 0, 1.5, 1, 1, 0, 12.5, 1, 1.1, 0.9],
        [15, 1, 1, 0.62, 0, 0.9, 1, 1, 0, 12.5, 1, 1.1, 0.9],
        [16, 1, 0.2, 0.12, 0, 0, 1, 1, 0, 12.5, 1, 1.1, 0.9],
        [17, 1, 0, 0, 0, 1.2, 1, 1, 0, 138, 1, 1.1, 0.9],
        [18, 3, 0, 0, 0, 0, 1, 1, 0, 138, 1, 1.05, 1.05],
    ])
    ppc["gen"] = array([
        [18, 0, 0, 100, -100, 1.05, 100, 1, 100, 0, 0, 0, 0, 0, 0, 0, 0, 0, 0, 0, 0],
    ])
    ppc["branch"] = array([
        [1, 2, 0.00431, 0.01204, 0.000035, 0, 0, 0, 0, 0, 1, -360, 360],
        [2, 3, 0.00601, 0.01677, 0.000049, 0, 0, 0, 0, 0, 1, -360, 360],
        [3, 4, 0.00316, 0.00882, 0.000026, 0, 0, 0, 0, 0, 1, -360, 360],
        [4, 5, 0.00896, 0.02502, 0.000073, 0, 0, 0, 0, 0, 1, -360, 360],
        [5, 6, 0.00295, 0.00824, 0.000024, 0, 0, 0, 0, 0, 1, -360, 360],
        [6, 7, 0.0172, 0.0212, 0.000046, 0, 0, 0, 0, 0, 1, -360, 360],
        [7, 8, 0.0407, 0.03053, 0.000051, 0, 0, 0, 0, 0, 1, -360, 360],
        [2, 9, 0.01706, 0.02209, 0.000043, 0, 0, 0, 0, 0, 1, -360, 360],
        [1, 10, 0.0291, 0.03768, 0.000074, 0, 0, 0, 0, 0, 1, -360, 360],
        [10, 11, 0.02222, 0.02877, 0.000056, 0, 0, 0, 0, 0, 1, -360, 360],
        [11, 12, 0.04803, 0.06218, 0.000122, 0, 0, 0, 0, 0, 1, -360, 360],
        [11, 13, 0.03985, 0.0516, 0.000101, 0, 0, 0, 0, 0, 1, -360, 360],
        [13, 14, 0.02910, 0.03768, 0.000074, 0, 0, 0, 0, 0, 1, -360, 360],
        [13, 15, 0.03727, 0.04593, 0.0001, 0, 0, 0, 0, 0, 1, -360, 360],
        [15, 16, 0.01104, 0.0136, 0.000118, 0, 0, 0, 0, 0, 1, -360, 360],
        [17, 1, 0.00312, 0.06753, 0, 0, 0, 0, 0, 0, 1, -360, 360],
        [17, 18, 0.0005, 0.00344, 0, 0, 0, 0, 0, 0, 1, -360, 360],
    ])
    
    return ppc

